
* Circuit Extracted by Tanner Research's L-Edit Version 15.00 / Extract Version 15.00 ;CMOSNuit Extracted by Tanner Research's L-Edit Version 15.00 / Extract Version 15.00 
* TDB File:  C:\Documents and Settings\Owner\Desktop\Project\Multiplier_pads.tdb
* Cell:  Cell0	Version 1.12
* Extract Definition File:  ..\extract\mhp_n05.ext
* Extract Date and Time:  01/31/2023 - 01:32

* Tech: AMI_C5N
* LOT: T22Y_TT (typical)                  WAF: 3104
* Temperature_parameters=Optimized 
.MODEL CMOSN NMOS (                                LEVEL   = 7
+VERSION = 3.1            TNOM    = 27             TOX     = 1.39E-8
+XJ      = 1.5E-7         NCH     = 1.7E17         VTH0    = 0.6696061
+K1      = 0.8351612      K2      = -0.0839158     K3      = 23.1023856
+K3B     = -7.6841108     W0      = 1E-8           NLX     = 1E-9
+DVT0W   = 0              DVT1W   = 0              DVT2W   = 0
+DVT0    = 2.9047241      DVT1    = 0.4302695      DVT2    = -0.134857
+U0      = 458.439679     UA      = 1E-13          UB      = 1.485499E-18
+UC      = 1.629939E-11   VSAT    = 1.643993E5     A0      = 0.6103537
+AGS     = 0.1194608      B0      = 2.674756E-6    B1      = 5E-6
+KETA    = -2.640681E-3   A1      = 8.219585E-5    A2      = 0.3564792
+RDSW    = 1.387108E3     PRWG    = 0.0299916      PRWB    = 0.0363981
+WR      = 1              WINT    = 2.472348E-7    LINT    = 3.597605E-8
+XL      = 0              XW      = 0              DWG     = -1.287163E-8
+DWB     = 5.306586E-8    VOFF    = 0              NFACTOR = 0.8365585
+CIT     = 0              CDSC    = 2.4E-4         CDSCD   = 0
+CDSCB   = 0              ETA0    = 0.0246738      ETAB    = -1.406123E-3
+DSUB    = 0.2543458      PCLM    = 2.5945188      PDIBLC1 = -0.4282336
+PDIBLC2 = 2.311743E-3    PDIBLCB = -0.0272914     DROUT   = 0.7283566
+PSCBE1  = 5.598623E8     PSCBE2  = 5.461645E-5    PVAG    = 0
+DELTA   = 0.01           RSH     = 81.8           MOBMOD  = 1
+PRT     = 8.621          UTE     = -1             KT1     = -0.2501
+KT1L    = -2.58E-9       KT2     = 0              UA1     = 5.4E-10
+UB1     = -4.8E-19       UC1     = -7.5E-11       AT      = 1E5
+WL      = 0              WLN     = 1              WW      = 0
+WWN     = 1              WWL     = 0              LL      = 0
+LLN     = 1              LW      = 0              LWN     = 1
+LWL     = 0              CAPMOD  = 2              XPART   = 0.5
+CGDO    = 2E-10          CGSO    = 2E-10          CGBO    = 1E-9
+CJ      = 4.197772E-4    PB      = 0.99           MJ      = 0.4515044
+CJSW    = 3.242724E-10   PBSW    = 0.1            MJSW    = 0.1153991
+CJSWG   = 1.64E-10       PBSWG   = 0.1            MJSWG   = 0.1153991
+CF      = 0              PVTH0   = 0.0585501      PRDSW   = 133.285505
+PK2     = -0.0299638     WKETA   = -0.0248758     LKETA   = 1.173187E-3
+AF      = 1              KF      = 0)
*
.MODEL CMOSP PMOS (                                LEVEL   = 7
+VERSION = 3.1            TNOM    = 27             TOX     = 1.39E-8
+XJ      = 1.5E-7         NCH     = 1.7E17         VTH0    = -0.9214347
+K1      = 0.5553722      K2      = 8.763328E-3    K3      = 6.3063558
+K3B     = -0.6487362     W0      = 1.280703E-8    NLX     = 2.593997E-8
+DVT0W   = 0              DVT1W   = 0              DVT2W   = 0
+DVT0    = 2.5131165      DVT1    = 0.5480536      DVT2    = -0.1186489
+U0      = 212.0166131    UA      = 2.807115E-9    UB      = 1E-21
+UC      = -5.82128E-11   VSAT    = 1.713601E5     A0      = 0.8430019
+AGS     = 0.1328608      B0      = 7.117912E-7    B1      = 5E-6
+KETA    = -3.674859E-3   A1      = 4.77502E-5     A2      = 0.3
+RDSW    = 2.837206E3     PRWG    = -0.0363908     PRWB    = -1.016722E-5
+WR      = 1              WINT    = 2.838038E-7    LINT    = 5.528807E-8
+XL      = 0              XW      = 0              DWG     = -1.606385E-8
+DWB     = 2.266386E-8    VOFF    = -0.0558512     NFACTOR = 0.9342488
+CIT     = 0              CDSC    = 2.4E-4         CDSCD   = 0
+CDSCB   = 0              ETA0    = 0.3251882      ETAB    = -0.0580325
+DSUB    = 1              PCLM    = 2.2409567      PDIBLC1 = 0.0411445
+PDIBLC2 = 3.355575E-3    PDIBLCB = -0.0551797     DROUT   = 0.2036901
+PSCBE1  = 6.44809E9      PSCBE2  = 6.300848E-10   PVAG    = 0
+DELTA   = 0.01           RSH     = 101.6          MOBMOD  = 1
+PRT     = 59.494         UTE     = -1             KT1     = -0.2942
+KT1L    = 1.68E-9        KT2     = 0              UA1     = 4.5E-9
+UB1     = -6.3E-18       UC1     = -1E-10         AT      = 1E3
+WL      = 0              WLN     = 1              WW      = 0
+WWN     = 1              WWL     = 0              LL      = 0
+LLN     = 1              LW      = 0              LWN     = 1
+LWL     = 0              CAPMOD  = 2              XPART   = 0.5
+CGDO    = 2.9E-10        CGSO    = 2.9E-10        CGBO    = 1E-9
+CJ      = 7.235528E-4    PB      = 0.9527355      MJ      = 0.4955293
+CJSW    = 2.692786E-10   PBSW    = 0.99           MJSW    = 0.2958392
+CJSWG   = 6.4E-11        PBSWG   = 0.99           MJSWG   = 0.2958392
+CF      = 0              PVTH0   = 5.98016E-3     PRDSW   = 14.8598424
+PK2     = 3.73981E-3     WKETA   = 5.292165E-3    LKETA   = -4.205905E-3 
+AF      = 1              KF      = 0)
*

* Warning:  Layers with Unassigned AREA Capacitance.
*   <n well wire>
*   <subs>
*   <allsubs>
*   <poly wire>
*   <Metal1>
*   <Metal1-Tight>
*   <Metal2>
*   <Metal2-Tight>
*   <LPNP emitter>
*   <LPNP collector>
* Warning:  Layers with Unassigned FRINGE Capacitance.
*   <Pad Comment>
*   <ndiff>
*   <n well wire>
*   <pdiff>
*   <subs>
*   <allsubs>
*   <AllMetal1>
*   <poly wire>
*   <AllMetal2>
*   <Metal3>
*   <Metal1>
*   <Metal1-Tight>
*   <Metal2>
*   <Metal2-Tight>
*   <LPNP emitter>
*   <LPNP collector>

* NODE NAME ALIASES
*       1 = U320/DataInUnBuf (1221.5 , 446)
*       2 = U319/DataInUnBuf (785.5 , 446)
*       3 = U318/DataInUnBuf (349.5 , 446)
*       4 = U317/DataInUnBuf (-86.5 , 446)
*       5 = U316/DataInUnBuf (-522.5 , 446)
*       6 = U315/DataInUnBuf (-958.5 , 446)
*       7 = U313/DataInUnBuf (-1394.5 , 446)
*       8 = U310/U228/VDD (-716 , -933.5)
*       8 = U331/VddWell (-1557.5 , -2302)
*       8 = U330/VddWell (-1557.5 , -2302)
*       8 = U331/VddSel (-1557.5 , -2301)
*       8 = U331/VddAct (-1557.5 , -2299)
*       8 = U330/VddSel (-1557.5 , -2301)
*       8 = U330/VddAct (-1557.5 , -2299)
*       8 = U331/Vdd (-1557.5 , -2234)
*       8 = U331/Vdd2 (-1557.5 , -2299)
*       8 = U330/Vdd (-1557.5 , -2234)
*       8 = U330/Vdd2 (-1557.5 , -2299)
*       8 = U332/VddWell (-1121.5 , -2302)
*       8 = U332/VddSel (-1121.5 , -2301)
*       8 = U332/VddAct (-1121.5 , -2299)
*       8 = U332/Vdd (-1121.5 , -2234)
*       8 = U332/Vdd2 (-1121.5 , -2299)
*       8 = U333/VddWell (-685.5 , -2302)
*       8 = U333/VddSel (-685.5 , -2301)
*       8 = U333/VddAct (-685.5 , -2299)
*       8 = U333/Vdd (-685.5 , -2234)
*       8 = U333/Vdd2 (-685.5 , -2299)
*       8 = U334/VddWell (-249.5 , -2302)
*       8 = U334/VddSel (-249.5 , -2301)
*       8 = U334/VddAct (-249.5 , -2299)
*       8 = U334/Vdd (-249.5 , -2234)
*       8 = U334/Vdd2 (-249.5 , -2299)
*       8 = U335/VddWell (186.5 , -2302)
*       8 = U335/VddSel (186.5 , -2301)
*       8 = U335/VddAct (186.5 , -2299)
*       8 = U335/Vdd (186.5 , -2234)
*       8 = U335/Vdd2 (186.5 , -2299)
*       8 = U336/VddWell (622.5 , -2302)
*       8 = U336/VddSel (622.5 , -2301)
*       8 = U336/VddAct (622.5 , -2299)
*       8 = U336/Vdd (622.5 , -2234)
*       8 = U336/Vdd2 (622.5 , -2299)
*       8 = U337/VddWell (1058.5 , -2302)
*       8 = U337/VddSel (1058.5 , -2301)
*       8 = U337/VddAct (1058.5 , -2299)
*       8 = U337/Vdd (1058.5 , -2234)
*       8 = U337/Vdd2 (1058.5 , -2299)
*       8 = U338/VddWell (1494.5 , -2302)
*       8 = U338/VddSel (1494.5 , -2301)
*       8 = U338/VddAct (1494.5 , -2299)
*       8 = U338/Vdd (1494.5 , -2234)
*       8 = U338/Vdd2 (1494.5 , -2299)
*       8 = U344/VddWell (-1685.5 , -2170)
*       8 = U344/VddSel (-1684.5 , -2170)
*       8 = U344/VddAct (-1682.5 , -2170)
*       8 = U344/Vdd (-1617.5 , -2170)
*       8 = U344/Vdd2 (-1682.5 , -2170)
*       8 = U339/VddWell (1491.5 , -2174)
*       8 = U339/VddSel (1492.5 , -2174)
*       8 = U339/VddAct (1494.5 , -2174)
*       8 = U339/Vdd (1494.5 , -2174)
*       8 = U339/Vdd2 (1559.5 , -2174)
*       8 = U324/VddWell (-1685.5 , -1734)
*       8 = U324/VddSel (-1684.5 , -1734)
*       8 = U324/VddAct (-1682.5 , -1734)
*       8 = U324/Vdd (-1617.5 , -1734)
*       8 = U324/Vdd2 (-1682.5 , -1734)
*       8 = U340/VddWell (1491.5 , -1738)
*       8 = U340/VddSel (1492.5 , -1738)
*       8 = U340/VddAct (1494.5 , -1738)
*       8 = U340/Vdd (1494.5 , -1738)
*       8 = U340/Vdd2 (1559.5 , -1738)
*       8 = U325/VddWell (-1685.5 , -1298)
*       8 = U325/VddSel (-1684.5 , -1298)
*       8 = U325/VddAct (-1682.5 , -1298)
*       8 = U325/Vdd (-1617.5 , -1298)
*       8 = U325/Vdd2 (-1682.5 , -1298)
*       8 = U341/VddWell (1491.5 , -1302)
*       8 = U341/VddSel (1492.5 , -1302)
*       8 = U341/VddAct (1494.5 , -1302)
*       8 = U341/Vdd (1494.5 , -1302)
*       8 = U341/Vdd2 (1559.5 , -1302)
*       8 = U303/U210/B (-989 , -1041.5)
*       8 = U303/BB (-989 , -1033)
*       8 = U303/U211/VDD (-927.5 , -1089)
*       8 = U303/U210/VDD (-927.5 , -1038)
*       8 = U303/U215/VDD (-848.5 , -1085.5)
*       8 = U303/U213/VDD (-809 , -1037)
*       8 = U304/U211/VDD (-630 , -1089)
*       8 = U304/U210/VDD (-630 , -1038)
*       8 = U304/U215/VDD (-551 , -1085.5)
*       8 = U304/U213/VDD (-511.5 , -1037)
*       8 = U305/U211/VDD (-345.5 , -1089)
*       8 = U305/U210/VDD (-345.5 , -1038)
*       8 = U305/U215/VDD (-266.5 , -1085.5)
*       8 = U305/U213/VDD (-227 , -1037)
*       8 = U306/U210/VDD (-61 , -1038)
*       8 = U306/U211/VDD (-61 , -1089)
*       8 = U306/U215/VDD (18 , -1085.5)
*       8 = U306/U213/VDD (57.5 , -1037)
*       8 = U307/U215/VDD (302.5 , -1085.5)
*       8 = U307/U211/VDD (223.5 , -1089)
*       8 = U307/U210/VDD (223.5 , -1038)
*       8 = U307/U213/VDD (342 , -1037)
*       8 = U296/U211/VDD (507.5 , -1089)
*       8 = U296/U210/VDD (507.5 , -1038)
*       8 = U296/U215/VDD (586.5 , -1085.5)
*       8 = U296/U213/VDD (626 , -1037)
*       8 = U269/VDD (792 , -1038)
*       8 = U302/U234/VDD (-993 , -958.5)
*       8 = U302/U237/Vdd (-966 , -957.5)
*       8 = U302/U238/VDD (-871 , -961)
*       8 = U310/U211/VDD (-630 , -987)
*       8 = U310/U210/VDD (-630 , -936)
*       8 = U310/U215/VDD (-551 , -983.5)
*       8 = U310/U213/VDD (-511.5 , -935)
*       8 = U309/U228/VDD (-431.5 , -933.5)
*       8 = U309/U211/VDD (-345.5 , -987)
*       8 = U309/U210/VDD (-345.5 , -936)
*       8 = U309/U215/VDD (-266.5 , -983.5)
*       8 = U309/U213/VDD (-227 , -935)
*       8 = U308/U228/VDD (-147 , -933.5)
*       8 = U308/U210/VDD (-61 , -936)
*       8 = U308/U211/VDD (-61 , -987)
*       8 = U308/U215/VDD (18 , -983.5)
*       8 = U308/U213/VDD (57.5 , -935)
*       8 = U297/U228/VDD (137.5 , -933.5)
*       8 = U297/U215/VDD (302.5 , -983.5)
*       8 = U297/U211/VDD (223.5 , -987)
*       8 = U297/U210/VDD (223.5 , -936)
*       8 = U297/U213/VDD (342 , -935)
*       8 = U295/U228/VDD (421.5 , -933.5)
*       8 = U295/U210/VDD (507.5 , -936)
*       8 = U295/U211/VDD (507.5 , -987)
*       8 = U295/U215/VDD (586.5 , -983.5)
*       8 = U294/U228/VDD (706 , -933.5)
*       8 = U295/U213/VDD (626 , -935)
*       8 = U294/U210/VDD (792 , -936)
*       8 = U294/U211/VDD (792 , -987)
*       8 = U294/U215/VDD (871 , -983.5)
*       8 = U294/U213/VDD (910.5 , -935)
*       8 = U326/VddWell (-1685.5 , -862)
*       8 = U326/VddSel (-1684.5 , -862)
*       8 = U326/VddAct (-1682.5 , -862)
*       8 = U326/Vdd (-1617.5 , -862)
*       8 = U326/Vdd2 (-1682.5 , -862)
*       8 = U301/U234/VDD (-993 , -863.5)
*       8 = U301/U232/VDD (-906.9 , -865.9)
*       8 = U242/U229/VDD (-730.5 , -836.5)
*       8 = U242/U228/VDD (-716 , -888.5)
*       8 = U242/U211/VDD (-620.5 , -891)
*       8 = U242/U210/VDD (-620.5 , -840)
*       8 = U242/U215/VDD (-541.5 , -887.5)
*       8 = U242/U213/VDD (-502 , -839)
*       8 = U244/U229/VDD (-446 , -836.5)
*       8 = U244/U228/VDD (-431.5 , -888.5)
*       8 = U244/U211/VDD (-336 , -891)
*       8 = U244/U210/VDD (-336 , -840)
*       8 = U244/U215/VDD (-257 , -887.5)
*       8 = U244/U213/VDD (-217.5 , -839)
*       8 = U246/U229/VDD (-161.5 , -836.5)
*       8 = U246/U228/VDD (-147 , -888.5)
*       8 = U246/U211/VDD (-51.5 , -891)
*       8 = U246/U210/VDD (-51.5 , -840)
*       8 = U246/U215/VDD (27.5 , -887.5)
*       8 = U246/U213/VDD (67 , -839)
*       8 = U248/U229/VDD (123 , -836.5)
*       8 = U248/U228/VDD (137.5 , -888.5)
*       8 = U248/U211/VDD (233 , -891)
*       8 = U248/U210/VDD (233 , -840)
*       8 = U250/U229/VDD (407 , -836.5)
*       8 = U248/U213/VDD (351.5 , -839)
*       8 = U248/U215/VDD (312 , -887.5)
*       8 = U250/U228/VDD (421.5 , -888.5)
*       8 = U250/U215/VDD (596 , -887.5)
*       8 = U250/U211/VDD (517 , -891)
*       8 = U250/U210/VDD (517 , -840)
*       8 = U252/U229/VDD (691.5 , -836.5)
*       8 = U250/U213/VDD (635.5 , -839)
*       8 = U252/U228/VDD (706 , -888.5)
*       8 = U252/U210/VDD (801.5 , -840)
*       8 = U252/U211/VDD (801.5 , -891)
*       8 = U252/U215/VDD (880.5 , -887.5)
*       8 = U252/U213/VDD (920 , -839)
*       8 = U342/VddWell (1491.5 , -866)
*       8 = U342/VddSel (1492.5 , -866)
*       8 = U342/VddAct (1494.5 , -866)
*       8 = U342/Vdd (1494.5 , -866)
*       8 = U342/Vdd2 (1559.5 , -866)
*       8 = U300/U234/VDD (-993 , -767.5)
*       8 = U300/U232/VDD (-906.9 , -769.9)
*       8 = U241/U229/VDD (-730.5 , -740.5)
*       8 = U241/U228/VDD (-716 , -792.5)
*       8 = U241/U211/VDD (-620.5 , -795)
*       8 = U241/U210/VDD (-620.5 , -744)
*       8 = U241/U215/VDD (-541.5 , -791.5)
*       8 = U241/U213/VDD (-502 , -743)
*       8 = U243/U229/VDD (-446 , -740.5)
*       8 = U243/U228/VDD (-431.5 , -792.5)
*       8 = U243/U211/VDD (-336 , -795)
*       8 = U243/U210/VDD (-336 , -744)
*       8 = U243/U215/VDD (-257 , -791.5)
*       8 = U243/U213/VDD (-217.5 , -743)
*       8 = U245/U229/VDD (-161.5 , -740.5)
*       8 = U245/U228/VDD (-147 , -792.5)
*       8 = U245/U211/VDD (-51.5 , -795)
*       8 = U245/U210/VDD (-51.5 , -744)
*       8 = U245/U215/VDD (27.5 , -791.5)
*       8 = U245/U213/VDD (67 , -743)
*       8 = U247/U229/VDD (123 , -740.5)
*       8 = U247/U228/VDD (137.5 , -792.5)
*       8 = U247/U211/VDD (233 , -795)
*       8 = U247/U210/VDD (233 , -744)
*       8 = U249/U229/VDD (407 , -740.5)
*       8 = U247/U213/VDD (351.5 , -743)
*       8 = U247/U215/VDD (312 , -791.5)
*       8 = U249/U228/VDD (421.5 , -792.5)
*       8 = U249/U215/VDD (596 , -791.5)
*       8 = U249/U211/VDD (517 , -795)
*       8 = U249/U210/VDD (517 , -744)
*       8 = U251/U229/VDD (691.5 , -740.5)
*       8 = U249/U213/VDD (635.5 , -743)
*       8 = U251/U228/VDD (706 , -792.5)
*       8 = U251/U210/VDD (801.5 , -744)
*       8 = U251/U211/VDD (801.5 , -795)
*       8 = U251/U215/VDD (880.5 , -791.5)
*       8 = U251/U213/VDD (920 , -743)
*       8 = U299/U234/VDD (-993 , -672.5)
*       8 = U299/U232/VDD (-906.9 , -674.9)
*       8 = U281/U237/Vdd (-689 , -671.5)
*       8 = U281/U234/VDD (-716 , -672.5)
*       8 = U281/U238/VDD (-594 , -675)
*       8 = U279/U229/VDD (-446 , -644.5)
*       8 = U279/U228/VDD (-431.5 , -696.5)
*       8 = U279/U211/VDD (-336 , -699)
*       8 = U279/U210/VDD (-336 , -648)
*       8 = U279/U213/VDD (-217.5 , -647)
*       8 = U279/U215/VDD (-257 , -695.5)
*       8 = U282/U237/Vdd (-107.5 , -670.5)
*       8 = U282/U234/VDD (-134.5 , -671.5)
*       8 = U282/U238/VDD (-12.5 , -674)
*       8 = U283/U237/Vdd (177 , -670.5)
*       8 = U283/U234/VDD (150 , -671.5)
*       8 = U283/U238/VDD (272 , -674)
*       8 = U284/U237/Vdd (461 , -670.5)
*       8 = U284/U234/VDD (434 , -671.5)
*       8 = U284/U238/VDD (556 , -674)
*       8 = U285/U237/Vdd (745.5 , -670.5)
*       8 = U285/U234/VDD (718.5 , -671.5)
*       8 = U285/U238/VDD (840.5 , -674)
*       8 = U298/U234/VDD (-993 , -594.5)
*       8 = U298/U232/VDD (-906.9 , -596.9)
*       8 = U298/U232/A (-874.9 , -598.4)
*       8 = U298/AA (-875 , -593.5)
*       8 = U287/U240/VDD (-728 , -593.5)
*       8 = U287/U239/VDD (-753 , -594.5)
*       8 = U293/U237/Vdd (-404.5 , -592.5)
*       8 = U293/U234/VDD (-431.5 , -593.5)
*       8 = U293/U238/VDD (-309.5 , -596)
*       8 = U293/U238/A (-277.5 , -597.5)
*       8 = U293/AA (-277.5 , -593.5)
*       8 = U288/U240/VDD (-146.5 , -592.5)
*       8 = U288/U239/VDD (-171.5 , -593.5)
*       8 = U289/U240/VDD (138 , -592.5)
*       8 = U289/U239/VDD (113 , -593.5)
*       8 = U290/U239/VDD (397 , -593.5)
*       8 = U290/U240/VDD (422 , -592.5)
*       8 = U291/U240/VDD (706.5 , -592.5)
*       8 = U291/U239/VDD (681.5 , -593.5)
*       8 = U327/VddWell (-1685.5 , -426)
*       8 = U327/VddSel (-1684.5 , -426)
*       8 = U327/VddAct (-1682.5 , -426)
*       8 = U327/Vdd (-1617.5 , -426)
*       8 = U327/Vdd2 (-1682.5 , -426)
*       8 = U343/VddWell (1491.5 , -430)
*       8 = U343/VddSel (1492.5 , -430)
*       8 = U343/VddAct (1494.5 , -430)
*       8 = U343/Vdd (1494.5 , -430)
*       8 = U343/Vdd2 (1559.5 , -430)
*       8 = U328/VddWell (-1685.5 , 10)
*       8 = U328/VddSel (-1684.5 , 10)
*       8 = U328/VddAct (-1682.5 , 10)
*       8 = U328/Vdd (-1617.5 , 10)
*       8 = U328/Vdd2 (-1682.5 , 10)
*       8 = U329/VddWell (1491.5 , 10)
*       8 = U329/VddSel (1492.5 , 10)
*       8 = U329/VddAct (1494.5 , 10)
*       8 = U329/Vdd (1494.5 , 10)
*       8 = U329/Vdd2 (1559.5 , 10)
*       8 = U322/VddWell (-1685.5 , 446)
*       8 = U322/VddSel (-1684.5 , 446)
*       8 = U322/VddAct (-1682.5 , 446)
*       8 = U322/Vdd (-1617.5 , 446)
*       8 = U322/Vdd2 (-1682.5 , 446)
*       8 = U313/VddWell (-1557.5 , 443)
*       8 = U313/VddSel (-1557.5 , 444)
*       8 = U313/VddAct (-1557.5 , 446)
*       8 = U313/Vdd (-1557.5 , 446)
*       8 = U315/VddWell (-1121.5 , 443)
*       8 = U315/VddSel (-1121.5 , 444)
*       8 = U315/VddAct (-1121.5 , 446)
*       8 = U315/Vdd (-1121.5 , 446)
*       8 = U316/VddWell (-685.5 , 443)
*       8 = U316/VddSel (-685.5 , 444)
*       8 = U316/VddAct (-685.5 , 446)
*       8 = U316/Vdd (-685.5 , 446)
*       8 = U317/VddWell (-249.5 , 443)
*       8 = U317/VddSel (-249.5 , 444)
*       8 = U317/VddAct (-249.5 , 446)
*       8 = U317/Vdd (-249.5 , 446)
*       8 = U318/VddWell (186.5 , 443)
*       8 = U318/VddSel (186.5 , 444)
*       8 = U318/VddAct (186.5 , 446)
*       8 = U318/Vdd (186.5 , 446)
*       8 = U319/VddWell (622.5 , 443)
*       8 = U319/VddSel (622.5 , 444)
*       8 = U319/VddAct (622.5 , 446)
*       8 = U319/Vdd (622.5 , 446)
*       8 = U320/VddWell (1058.5 , 443)
*       8 = U320/VddSel (1058.5 , 444)
*       8 = U320/VddAct (1058.5 , 446)
*       8 = U320/Vdd (1058.5 , 446)
*       8 = U323/VddWell (1491.5 , 446)
*       8 = U323/VddSel (1492.5 , 446)
*       8 = U323/VddAct (1494.5 , 446)
*       8 = U323/Vdd (1494.5 , 446)
*       8 = U323/Vdd2 (1559.5 , 446)
*       8 = U313/Vdd2 (-1557.5 , 511)
*       8 = U315/Vdd2 (-1121.5 , 511)
*       8 = U316/Vdd2 (-685.5 , 511)
*       8 = U317/Vdd2 (-249.5 , 511)
*       8 = U318/Vdd2 (186.5 , 511)
*       8 = U319/Vdd2 (622.5 , 511)
*       8 = U320/Vdd2 (1058.5 , 511)
*       12 = U329/Gnd (1494.5 , 88)
*       12 = U310/U211/GND (-639 , -1017.5)
*       12 = U303/U210/GND (-936.5 , -1068.5)
*       12 = U303/U211/GND (-936.5 , -1119.5)
*       12 = U331/GndSel (-1557.5 , -2432)
*       12 = U331/GndAct (-1557.5 , -2430)
*       12 = U330/GndSel (-1557.5 , -2432)
*       12 = U330/GndAct (-1557.5 , -2430)
*       12 = U331/Gnd2 (-1557.5 , -2430)
*       12 = U330/Gnd2 (-1557.5 , -2430)
*       12 = U332/GndSel (-1121.5 , -2432)
*       12 = U332/GndAct (-1121.5 , -2430)
*       12 = U332/Gnd2 (-1121.5 , -2430)
*       12 = U333/GndSel (-685.5 , -2432)
*       12 = U333/GndAct (-685.5 , -2430)
*       12 = U333/Gnd2 (-685.5 , -2430)
*       12 = U334/GndSel (-249.5 , -2432)
*       12 = U334/GndAct (-249.5 , -2430)
*       12 = U334/Gnd2 (-249.5 , -2430)
*       12 = U335/GndSel (186.5 , -2432)
*       12 = U335/GndAct (186.5 , -2430)
*       12 = U335/Gnd2 (186.5 , -2430)
*       12 = U336/GndSel (622.5 , -2432)
*       12 = U336/GndAct (622.5 , -2430)
*       12 = U336/Gnd2 (622.5 , -2430)
*       12 = U337/GndSel (1058.5 , -2432)
*       12 = U337/GndAct (1058.5 , -2430)
*       12 = U337/Gnd2 (1058.5 , -2430)
*       12 = U338/GndSel (1494.5 , -2432)
*       12 = U338/GndAct (1494.5 , -2430)
*       12 = U338/Gnd2 (1494.5 , -2430)
*       12 = U331/Gnd (-1557.5 , -2365)
*       12 = U330/Gnd (-1557.5 , -2365)
*       12 = U332/Gnd (-1121.5 , -2365)
*       12 = U333/Gnd (-685.5 , -2365)
*       12 = U334/Gnd (-249.5 , -2365)
*       12 = U335/Gnd (186.5 , -2365)
*       12 = U336/Gnd (622.5 , -2365)
*       12 = U337/Gnd (1058.5 , -2365)
*       12 = U338/Gnd (1494.5 , -2365)
*       12 = U344/GndSel (-1815.5 , -2170)
*       12 = U344/GndAct (-1813.5 , -2170)
*       12 = U344/Gnd2 (-1813.5 , -2170)
*       12 = U344/Gnd (-1748.5 , -2170)
*       12 = U339/GndSel (1623.5 , -2174)
*       12 = U339/GndAct (1625.5 , -2174)
*       12 = U339/Gnd (1625.5 , -2174)
*       12 = U339/Gnd2 (1690.5 , -2174)
*       12 = U324/GndSel (-1815.5 , -1734)
*       12 = U324/GndAct (-1813.5 , -1734)
*       12 = U324/Gnd2 (-1813.5 , -1734)
*       12 = U324/Gnd (-1748.5 , -1734)
*       12 = U340/GndSel (1623.5 , -1738)
*       12 = U340/GndAct (1625.5 , -1738)
*       12 = U340/Gnd (1625.5 , -1738)
*       12 = U340/Gnd2 (1690.5 , -1738)
*       12 = U325/GndSel (-1815.5 , -1298)
*       12 = U325/GndAct (-1813.5 , -1298)
*       12 = U325/Gnd2 (-1813.5 , -1298)
*       12 = U325/Gnd (-1748.5 , -1298)
*       12 = U341/GndSel (1623.5 , -1302)
*       12 = U341/GndAct (1625.5 , -1302)
*       12 = U341/Gnd (1625.5 , -1302)
*       12 = U341/Gnd2 (1690.5 , -1302)
*       12 = U303/U215/GND (-834.5 , -1120.5)
*       12 = U304/U211/GND (-639 , -1119.5)
*       12 = U304/U215/GND (-537 , -1120.5)
*       12 = U305/U211/GND (-354.5 , -1119.5)
*       12 = U305/U215/GND (-252.5 , -1120.5)
*       12 = U306/U211/GND (-70 , -1119.5)
*       12 = U306/U215/GND (32 , -1120.5)
*       12 = U307/U211/GND (214.5 , -1119.5)
*       12 = U307/U215/GND (316.5 , -1120.5)
*       12 = U296/U211/GND (498.5 , -1119.5)
*       12 = U296/U215/GND (600.5 , -1120.5)
*       12 = U303/U213/GND (-817.5 , -1069)
*       12 = U304/U210/GND (-639 , -1068.5)
*       12 = U304/U213/GND (-520 , -1069)
*       12 = U310/U215/GND (-537 , -1018.5)
*       12 = U309/U211/GND (-354.5 , -1017.5)
*       12 = U305/U210/GND (-354.5 , -1068.5)
*       12 = U305/U213/GND (-235.5 , -1069)
*       12 = U309/U215/GND (-252.5 , -1018.5)
*       12 = U306/U210/GND (-70 , -1068.5)
*       12 = U308/U211/GND (-70 , -1017.5)
*       12 = U306/U213/GND (49 , -1069)
*       12 = U308/U215/GND (32 , -1018.5)
*       12 = U297/U211/GND (214.5 , -1017.5)
*       12 = U307/U210/GND (214.5 , -1068.5)
*       12 = U307/U213/GND (333.5 , -1069)
*       12 = U297/U215/GND (316.5 , -1018.5)
*       12 = U296/U210/GND (498.5 , -1068.5)
*       12 = U295/U211/GND (498.5 , -1017.5)
*       12 = U295/U215/GND (600.5 , -1018.5)
*       12 = U296/U213/GND (617.5 , -1069)
*       12 = U294/U211/GND (783 , -1017.5)
*       12 = U269/GND (783 , -1068.5)
*       12 = U294/U215/GND (885 , -1018.5)
*       12 = U302/U234/GND (-1042.5 , -993)
*       12 = U302/U237/GND (-967.5 , -992)
*       12 = U302/U238/GND (-880 , -991.5)
*       12 = U242/U228/GND (-765.5 , -923)
*       12 = U310/U228/GND (-765.5 , -968)
*       12 = U310/U210/GND (-639 , -966.5)
*       12 = U242/U211/GND (-629.5 , -921.5)
*       12 = U242/U215/GND (-527.5 , -922.5)
*       12 = U310/U213/GND (-520 , -967)
*       12 = U244/U228/GND (-481 , -923)
*       12 = U309/U228/GND (-481 , -968)
*       12 = U309/U210/GND (-354.5 , -966.5)
*       12 = U244/U211/GND (-345 , -921.5)
*       12 = U246/U228/GND (-196.5 , -923)
*       12 = U244/U215/GND (-243 , -922.5)
*       12 = U309/U213/GND (-235.5 , -967)
*       12 = U308/U228/GND (-196.5 , -968)
*       12 = U308/U210/GND (-70 , -966.5)
*       12 = U246/U211/GND (-60.5 , -921.5)
*       12 = U248/U228/GND (88 , -923)
*       12 = U246/U215/GND (41.5 , -922.5)
*       12 = U308/U213/GND (49 , -967)
*       12 = U297/U228/GND (88 , -968)
*       12 = U248/U211/GND (224 , -921.5)
*       12 = U297/U210/GND (214.5 , -966.5)
*       12 = U297/U213/GND (333.5 , -967)
*       12 = U295/U228/GND (372 , -968)
*       12 = U250/U228/GND (372 , -923)
*       12 = U248/U215/GND (326 , -922.5)
*       12 = U250/U211/GND (508 , -921.5)
*       12 = U295/U210/GND (498.5 , -966.5)
*       12 = U250/U215/GND (610 , -922.5)
*       12 = U252/U228/GND (656.5 , -923)
*       12 = U294/U228/GND (656.5 , -968)
*       12 = U295/U213/GND (617.5 , -967)
*       12 = U294/U210/GND (783 , -966.5)
*       12 = U252/U211/GND (792.5 , -921.5)
*       12 = U252/U215/GND (894.5 , -922.5)
*       12 = U294/U213/GND (902 , -967)
*       12 = U326/GndSel (-1815.5 , -862)
*       12 = U326/GndAct (-1813.5 , -862)
*       12 = U326/Gnd2 (-1813.5 , -862)
*       12 = U326/Gnd (-1748.5 , -862)
*       12 = U301/U234/GND (-1042.5 , -898)
*       12 = U301/U232/GND (-915.9 , -896.4)
*       12 = U241/U228/GND (-765.5 , -827)
*       12 = U242/U229/GND (-716.5 , -871.5)
*       12 = U242/U210/GND (-629.5 , -870.5)
*       12 = U241/U211/GND (-629.5 , -825.5)
*       12 = U241/U215/GND (-527.5 , -826.5)
*       12 = U242/U213/GND (-510.5 , -871)
*       12 = U243/U228/GND (-481 , -827)
*       12 = U244/U229/GND (-432 , -871.5)
*       12 = U244/U210/GND (-345 , -870.5)
*       12 = U243/U211/GND (-345 , -825.5)
*       12 = U245/U228/GND (-196.5 , -827)
*       12 = U243/U215/GND (-243 , -826.5)
*       12 = U244/U213/GND (-226 , -871)
*       12 = U246/U229/GND (-147.5 , -871.5)
*       12 = U246/U210/GND (-60.5 , -870.5)
*       12 = U245/U211/GND (-60.5 , -825.5)
*       12 = U247/U228/GND (88 , -827)
*       12 = U245/U215/GND (41.5 , -826.5)
*       12 = U246/U213/GND (58.5 , -871)
*       12 = U248/U229/GND (137 , -871.5)
*       12 = U247/U211/GND (224 , -825.5)
*       12 = U248/U210/GND (224 , -870.5)
*       12 = U249/U228/GND (372 , -827)
*       12 = U247/U215/GND (326 , -826.5)
*       12 = U248/U213/GND (343 , -871)
*       12 = U249/U211/GND (508 , -825.5)
*       12 = U250/U229/GND (421 , -871.5)
*       12 = U250/U210/GND (508 , -870.5)
*       12 = U249/U215/GND (610 , -826.5)
*       12 = U252/U229/GND (705.5 , -871.5)
*       12 = U250/U213/GND (627 , -871)
*       12 = U251/U228/GND (656.5 , -827)
*       12 = U252/U210/GND (792.5 , -870.5)
*       12 = U251/U211/GND (792.5 , -825.5)
*       12 = U251/U215/GND (894.5 , -826.5)
*       12 = U252/U213/GND (911.5 , -871)
*       12 = U342/GndSel (1623.5 , -866)
*       12 = U342/GndAct (1625.5 , -866)
*       12 = U342/Gnd (1625.5 , -866)
*       12 = U342/Gnd2 (1690.5 , -866)
*       12 = U299/U234/GND (-1042.5 , -707)
*       12 = U300/U234/GND (-1042.5 , -802)
*       12 = U300/U232/GND (-915.9 , -800.4)
*       12 = U299/U232/GND (-915.9 , -705.4)
*       12 = U241/U229/GND (-716.5 , -775.5)
*       12 = U281/U237/GND (-690.5 , -706)
*       12 = U281/U234/GND (-765.5 , -707)
*       12 = U281/U238/GND (-603 , -705.5)
*       12 = U241/U210/GND (-629.5 , -774.5)
*       12 = U241/U213/GND (-510.5 , -775)
*       12 = U243/U229/GND (-432 , -775.5)
*       12 = U279/U228/GND (-481 , -731)
*       12 = U279/U211/GND (-345 , -729.5)
*       12 = U243/U210/GND (-345 , -774.5)
*       12 = U243/U213/GND (-226 , -775)
*       12 = U279/U215/GND (-243 , -730.5)
*       12 = U282/U234/GND (-184 , -706)
*       12 = U245/U229/GND (-147.5 , -775.5)
*       12 = U245/U210/GND (-60.5 , -774.5)
*       12 = U283/U234/GND (100.5 , -706)
*       12 = U245/U213/GND (58.5 , -775)
*       12 = U247/U229/GND (137 , -775.5)
*       12 = U247/U210/GND (224 , -774.5)
*       12 = U284/U234/GND (384.5 , -706)
*       12 = U247/U213/GND (343 , -775)
*       12 = U249/U229/GND (421 , -775.5)
*       12 = U249/U210/GND (508 , -774.5)
*       12 = U285/U234/GND (669 , -706)
*       12 = U251/U229/GND (705.5 , -775.5)
*       12 = U249/U213/GND (627 , -775)
*       12 = U251/U210/GND (792.5 , -774.5)
*       12 = U251/U213/GND (911.5 , -775)
*       12 = U298/U234/GND (-1042.5 , -629)
*       12 = U298/U232/GND (-915.9 , -627.4)
*       12 = U287/U240/GND (-714 , -628.5)
*       12 = U287/U239/GND (-723.5 , -628.5)
*       12 = U279/U229/GND (-432 , -679.5)
*       12 = U293/U237/GND (-406 , -627)
*       12 = U293/U234/GND (-481 , -628)
*       12 = U293/U238/GND (-318.5 , -626.5)
*       12 = U279/U210/GND (-345 , -678.5)
*       12 = U279/U213/GND (-226 , -679)
*       12 = U282/U237/GND (-109 , -705)
*       12 = U288/U240/GND (-132.5 , -627.5)
*       12 = U288/U239/GND (-142 , -627.5)
*       12 = U282/U238/GND (-21.5 , -704.5)
*       12 = U283/U237/GND (175.5 , -705)
*       12 = U289/U240/GND (152 , -627.5)
*       12 = U289/U239/GND (142.5 , -627.5)
*       12 = U283/U238/GND (263 , -704.5)
*       12 = U284/U237/GND (459.5 , -705)