
* Circuit Extracted by Tanner Research's L-Edit Version 15.00 / Extract Version 15.00 ;CMOSNuit Extracted by Tanner Research's L-Edit Version 15.00 / Extract Version 15.00 
* TDB File:  C:\Documents and Settings\Owner\Desktop\Project\Multiplier.tdb
* Cell:  Cell0	Version 1.10
* Extract Definition File:  ..\extract\mhp_n05.ext
* Extract Date and Time:  01/30/2023 - 20:29

* Tech: AMI_C5N
* LOT: T22Y_TT (typical)                  WAF: 3104
* Temperature_parameters=Optimized 
.MODEL CMOSN NMOS (                                LEVEL   = 7
+VERSION = 3.1            TNOM    = 27             TOX     = 1.39E-8
+XJ      = 1.5E-7         NCH     = 1.7E17         VTH0    = 0.6696061
+K1      = 0.8351612      K2      = -0.0839158     K3      = 23.1023856
+K3B     = -7.6841108     W0      = 1E-8           NLX     = 1E-9
+DVT0W   = 0              DVT1W   = 0              DVT2W   = 0
+DVT0    = 2.9047241      DVT1    = 0.4302695      DVT2    = -0.134857
+U0      = 458.439679     UA      = 1E-13          UB      = 1.485499E-18
+UC      = 1.629939E-11   VSAT    = 1.643993E5     A0      = 0.6103537
+AGS     = 0.1194608      B0      = 2.674756E-6    B1      = 5E-6
+KETA    = -2.640681E-3   A1      = 8.219585E-5    A2      = 0.3564792
+RDSW    = 1.387108E3     PRWG    = 0.0299916      PRWB    = 0.0363981
+WR      = 1              WINT    = 2.472348E-7    LINT    = 3.597605E-8
+XL      = 0              XW      = 0              DWG     = -1.287163E-8
+DWB     = 5.306586E-8    VOFF    = 0              NFACTOR = 0.8365585
+CIT     = 0              CDSC    = 2.4E-4         CDSCD   = 0
+CDSCB   = 0              ETA0    = 0.0246738      ETAB    = -1.406123E-3
+DSUB    = 0.2543458      PCLM    = 2.5945188      PDIBLC1 = -0.4282336
+PDIBLC2 = 2.311743E-3    PDIBLCB = -0.0272914     DROUT   = 0.7283566
+PSCBE1  = 5.598623E8     PSCBE2  = 5.461645E-5    PVAG    = 0
+DELTA   = 0.01           RSH     = 81.8           MOBMOD  = 1
+PRT     = 8.621          UTE     = -1             KT1     = -0.2501
+KT1L    = -2.58E-9       KT2     = 0              UA1     = 5.4E-10
+UB1     = -4.8E-19       UC1     = -7.5E-11       AT      = 1E5
+WL      = 0              WLN     = 1              WW      = 0
+WWN     = 1              WWL     = 0              LL      = 0
+LLN     = 1              LW      = 0              LWN     = 1
+LWL     = 0              CAPMOD  = 2              XPART   = 0.5
+CGDO    = 2E-10          CGSO    = 2E-10          CGBO    = 1E-9
+CJ      = 4.197772E-4    PB      = 0.99           MJ      = 0.4515044
+CJSW    = 3.242724E-10   PBSW    = 0.1            MJSW    = 0.1153991
+CJSWG   = 1.64E-10       PBSWG   = 0.1            MJSWG   = 0.1153991
+CF      = 0              PVTH0   = 0.0585501      PRDSW   = 133.285505
+PK2     = -0.0299638     WKETA   = -0.0248758     LKETA   = 1.173187E-3
+AF      = 1              KF      = 0)
*
.MODEL CMOSP PMOS (                                LEVEL   = 7
+VERSION = 3.1            TNOM    = 27             TOX     = 1.39E-8
+XJ      = 1.5E-7         NCH     = 1.7E17         VTH0    = -0.9214347
+K1      = 0.5553722      K2      = 8.763328E-3    K3      = 6.3063558
+K3B     = -0.6487362     W0      = 1.280703E-8    NLX     = 2.593997E-8
+DVT0W   = 0              DVT1W   = 0              DVT2W   = 0
+DVT0    = 2.5131165      DVT1    = 0.5480536      DVT2    = -0.1186489
+U0      = 212.0166131    UA      = 2.807115E-9    UB      = 1E-21
+UC      = -5.82128E-11   VSAT    = 1.713601E5     A0      = 0.8430019
+AGS     = 0.1328608      B0      = 7.117912E-7    B1      = 5E-6
+KETA    = -3.674859E-3   A1      = 4.77502E-5     A2      = 0.3
+RDSW    = 2.837206E3     PRWG    = -0.0363908     PRWB    = -1.016722E-5
+WR      = 1              WINT    = 2.838038E-7    LINT    = 5.528807E-8
+XL      = 0              XW      = 0              DWG     = -1.606385E-8
+DWB     = 2.266386E-8    VOFF    = -0.0558512     NFACTOR = 0.9342488
+CIT     = 0              CDSC    = 2.4E-4         CDSCD   = 0
+CDSCB   = 0              ETA0    = 0.3251882      ETAB    = -0.0580325
+DSUB    = 1              PCLM    = 2.2409567      PDIBLC1 = 0.0411445
+PDIBLC2 = 3.355575E-3    PDIBLCB = -0.0551797     DROUT   = 0.2036901
+PSCBE1  = 6.44809E9      PSCBE2  = 6.300848E-10   PVAG    = 0
+DELTA   = 0.01           RSH     = 101.6          MOBMOD  = 1
+PRT     = 59.494         UTE     = -1             KT1     = -0.2942
+KT1L    = 1.68E-9        KT2     = 0              UA1     = 4.5E-9
+UB1     = -6.3E-18       UC1     = -1E-10         AT      = 1E3
+WL      = 0              WLN     = 1              WW      = 0
+WWN     = 1              WWL     = 0              LL      = 0
+LLN     = 1              LW      = 0              LWN     = 1
+LWL     = 0              CAPMOD  = 2              XPART   = 0.5
+CGDO    = 2.9E-10        CGSO    = 2.9E-10        CGBO    = 1E-9
+CJ      = 7.235528E-4    PB      = 0.9527355      MJ      = 0.4955293
+CJSW    = 2.692786E-10   PBSW    = 0.99           MJSW    = 0.2958392
+CJSWG   = 6.4E-11        PBSWG   = 0.99           MJSWG   = 0.2958392
+CF      = 0              PVTH0   = 5.98016E-3     PRDSW   = 14.8598424
+PK2     = 3.73981E-3     WKETA   = 5.292165E-3    LKETA   = -4.205905E-3 
+AF      = 1              KF      = 0)
*

* Warning:  Layers with Unassigned FRINGE Capacitance.
*   <Pad Comment>

* NODE NAME ALIASES
*       1 = U291/U240/VDD (706.5 , 307.5)
*       1 = U291/U239/VDD (681.5 , 306.5)
*       3 = U290/U240/VDD (422 , 307.5)
*       3 = U290/U239/VDD (397 , 306.5)
*       4 = U290/U240/vout (429 , 287)
*       4 = U285/U238/A (872.5 , 224.5)
*       4 = U285/AA (872.5 , 228.5)
*       7 = U289/U239/VDD (113 , 306.5)
*       7 = U289/U240/VDD (138 , 307.5)
*       9 = U298/U234/INPUTA (-1067 , 275)
*       9 = U298/X (-1072 , 289)
*       9 = X0 (-1072.5 , 287)
*       9 = U287/U239/A (-758.5 , 284)
*       9 = U287/X (-764.5 , 289)
*       9 = U293/U234/INPUTA (-505.5 , 276)
*       9 = U293/X (-510.5 , 289.5)
*       9 = U288/U239/A (-177 , 285)
*       9 = U288/X (-183 , 290)
*       9 = U289/U239/A (107.5 , 285)
*       9 = U289/X (101.5 , 290)
*       9 = U290/U239/A (391.5 , 285)
*       9 = U290/X (385.5 , 290)
*       9 = U291/U239/A (676 , 285)
*       9 = U291/X (670 , 290)
*       10 = U288/U240/VDD (-146.5 , 307.5)
*       10 = U288/U239/VDD (-171.5 , 306.5)
*       14 = U293/U238/B (-371 , 300.5)
*       14 = U293/U237/vout (-385.5 , 284)
*       16 = U293/U237/Vdd (-404.5 , 307.5)
*       16 = U293/U234/VDD (-431.5 , 306.5)
*       16 = U293/U238/VDD (-309.5 , 304)
*       16 = U293/U238/A (-277.5 , 302.5)
*       16 = U293/AA (-277.5 , 306.5)
*       17 = U293/U237/vin (-414 , 285)
*       17 = U293/U234/OUTPUT (-425 , 293.5)
*       22 = U298/U234/VDD (-993 , 305.5)
*       22 = U298/U232/VDD (-906.9 , 303.1)
*       22 = U298/U232/A (-874.9 , 301.6)
*       22 = U298/AA (-875 , 306.5)
*       22 = U287/U240/VDD (-728 , 306.5)
*       22 = U287/U239/VDD (-753 , 305.5)
*       28 = U285/U237/vout (764.5 , 206)
*       28 = U285/U238/B (779 , 222.5)
*       29 = U285/U238/S (771 , 223)
*       29 = U285/Sum (771 , 192)
*       29 = P1 (915.5 , 185)
*       31 = U291/U240/GND (720.5 , 272.5)
*       31 = U291/U239/GND (711 , 272.5)
*       31 = U290/U240/GND (436 , 272.5)
*       31 = U290/U239/GND (426.5 , 272.5)
*       31 = U289/U240/GND (152 , 272.5)
*       31 = U289/U239/GND (142.5 , 272.5)
*       31 = U288/U240/GND (-132.5 , 272.5)
*       31 = U288/U239/GND (-142 , 272.5)
*       31 = U287/U240/GND (-714 , 271.5)
*       31 = U287/U239/GND (-723.5 , 271.5)
*       31 = U283/U234/GND (100.5 , 194)
*       31 = U282/U234/GND (-184 , 194)
*       31 = U293/U234/GND (-481 , 272)
*       31 = U251/U215/GND (894.5 , 73.5)
*       31 = U251/U211/GND (792.5 , 74.5)
*       31 = U249/U211/GND (508 , 74.5)
*       31 = U249/U229/GND (421 , 124.5)
*       31 = U247/U211/GND (224 , 74.5)
*       31 = U245/U211/GND (-60.5 , 74.5)
*       31 = U279/U211/GND (-345 , 170.5)
*       31 = U243/U211/GND (-345 , 74.5)
*       31 = U279/U228/GND (-481 , 169)
*       31 = U241/U211/GND (-629.5 , 74.5)
*       31 = U252/U211/GND (792.5 , -21.5)
*       31 = U249/U215/GND (610 , 73.5)
*       31 = U250/U211/GND (508 , -21.5)
*       31 = U250/U229/GND (421 , 28.5)
*       31 = U247/U215/GND (326 , 73.5)
*       31 = U248/U215/GND (326 , -22.5)
*       31 = U248/U211/GND (224 , -21.5)
*       31 = U247/U228/GND (88 , 73)
*       31 = U245/U215/GND (41.5 , 73.5)
*       31 = U245/U228/GND (-196.5 , 73)
*       31 = U243/U215/GND (-243 , 73.5)
*       31 = U244/U211/GND (-345 , -21.5)
*       31 = U243/U228/GND (-481 , 73)
*       31 = U241/U215/GND (-527.5 , 73.5)
*       31 = U242/U211/GND (-629.5 , -21.5)
*       31 = U294/U211/GND (783 , -117.5)
*       31 = U295/U211/GND (498.5 , -117.5)
*       31 = U297/U215/GND (316.5 , -118.5)
*       31 = U297/U211/GND (214.5 , -117.5)
*       31 = U310/U211/GND (-639 , -117.5)
*       31 = U302/U238/GND (-880 , -91.5)
*       31 = U302/U237/GND (-967.5 , -92)
*       31 = U269/GND (783 , -168.5)
*       31 = U296/U211/GND (498.5 , -219.5)
*       31 = U296/U210/GND (498.5 , -168.5)
*       31 = U307/U215/GND (316.5 , -220.5)
*       31 = U307/U211/GND (214.5 , -219.5)
*       31 = U307/U210/GND (214.5 , -168.5)
*       31 = U304/U211/GND (-639 , -219.5)
*       31 = U304/U210/GND (-639 , -168.5)
*       31 = U303/U211/GND (-936.5 , -219.5)
*       31 = U303/U210/GND (-936.5 , -168.5)
*       31 = U303/U213/GND (-817.5 , -169)
*       31 = U303/U215/GND (-834.5 , -220.5)
*       31 = U304/U213/GND (-520 , -169)
*       31 = U304/U215/GND (-537 , -220.5)
*       31 = U305/U210/GND (-354.5 , -168.5)
*       31 = U305/U211/GND (-354.5 , -219.5)
*       31 = U305/U213/GND (-235.5 , -169)
*       31 = U305/U215/GND (-252.5 , -220.5)
*       31 = U306/U210/GND (-70 , -168.5)
*       31 = U306/U211/GND (-70 , -219.5)
*       31 = U306/U215/GND (32 , -220.5)
*       31 = U306/U213/GND (49 , -169)
*       31 = U307/U213/GND (333.5 , -169)
*       31 = U296/U213/GND (617.5 , -169)
*       31 = U296/U215/GND (600.5 , -220.5)
*       31 = U302/U234/GND (-1042.5 , -93)
*       31 = U310/U228/GND (-765.5 , -68)
*       31 = U310/U210/GND (-639 , -66.5)
*       31 = U310/U213/GND (-520 , -67)
*       31 = U309/U228/GND (-481 , -68)
*       31 = U310/U215/GND (-537 , -118.5)
*       31 = U309/U210/GND (-354.5 , -66.5)
*       31 = U309/U211/GND (-354.5 , -117.5)
*       31 = U309/U213/GND (-235.5 , -67)
*       31 = U308/U228/GND (-196.5 , -68)
*       31 = U309/U215/GND (-252.5 , -118.5)
*       31 = U308/U210/GND (-70 , -66.5)
*       31 = U308/U211/GND (-70 , -117.5)
*       31 = U308/U215/GND (32 , -118.5)
*       31 = U308/U213/GND (49 , -67)
*       31 = U297/U228/GND (88 , -68)
*       31 = U297/U210/GND (214.5 , -66.5)
*       31 = U297/U213/GND (333.5 , -67)
*       31 = U295/U228/GND (372 , -68)
*       31 = U295/U210/GND (498.5 , -66.5)
*       31 = U295/U213/GND (617.5 , -67)
*       31 = U295/U215/GND (600.5 , -118.5)
*       31 = U294/U228/GND (656.5 , -68)
*       31 = U294/U210/GND (783 , -66.5)
*       31 = U294/U213/GND (902 , -67)
*       31 = U294/U215/GND (885 , -118.5)
*       31 = U301/U234/GND (-1042.5 , 2)
*       31 = U301/U232/GND (-915.9 , 3.6)
*       31 = U241/U228/GND (-765.5 , 73)
*       31 = U242/U228/GND (-765.5 , -23)
*       31 = U242/U229/GND (-716.5 , 28.5)
*       31 = U242/U210/GND (-629.5 , 29.5)
*       31 = U242/U213/GND (-510.5 , 29)
*       31 = U244/U228/GND (-481 , -23)
*       31 = U242/U215/GND (-527.5 , -22.5)
*       31 = U244/U229/GND (-432 , 28.5)
*       31 = U244/U210/GND (-345 , 29.5)
*       31 = U244/U213/GND (-226 , 29)
*       31 = U246/U228/GND (-196.5 , -23)
*       31 = U244/U215/GND (-243 , -22.5)
*       31 = U246/U229/GND (-147.5 , 28.5)
*       31 = U246/U210/GND (-60.5 , 29.5)
*       31 = U246/U211/GND (-60.5 , -21.5)
*       31 = U246/U213/GND (58.5 , 29)
*       31 = U248/U228/GND (88 , -23)
*       31 = U246/U215/GND (41.5 , -22.5)
*       31 = U248/U229/GND (137 , 28.5)
*       31 = U248/U210/GND (224 , 29.5)
*       31 = U250/U228/GND (372 , -23)
*       31 = U249/U228/GND (372 , 73)
*       31 = U248/U213/GND (343 , 29)
*       31 = U250/U210/GND (508 , 29.5)
*       31 = U250/U215/GND (610 , -22.5)
*       31 = U251/U228/GND (656.5 , 73)
*       31 = U252/U228/GND (656.5 , -23)
*       31 = U252/U229/GND (705.5 , 28.5)
*       31 = U250/U213/GND (627 , 29)
*       31 = U252/U210/GND (792.5 , 29.5)
*       31 = U252/U213/GND (911.5 , 29)
*       31 = U252/U215/GND (894.5 , -22.5)
*       31 = U300/U234/GND (-1042.5 , 98)
*       31 = U300/U232/GND (-915.9 , 99.6)
*       31 = U241/U229/GND (-716.5 , 124.5)
*       31 = U241/U210/GND (-629.5 , 125.5)
*       31 = U241/U213/GND (-510.5 , 125)
*       31 = U243/U229/GND (-432 , 124.5)
*       31 = U243/U210/GND (-345 , 125.5)
*       31 = U243/U213/GND (-226 , 125)
*       31 = U279/U215/GND (-243 , 169.5)
*       31 = U245/U229/GND (-147.5 , 124.5)
*       31 = U245/U210/GND (-60.5 , 125.5)
*       31 = U245/U213/GND (58.5 , 125)
*       31 = U247/U229/GND (137 , 124.5)
*       31 = U247/U210/GND (224 , 125.5)
*       31 = U247/U213/GND (343 , 125)
*       31 = U249/U210/GND (508 , 125.5)
*       31 = U251/U229/GND (705.5 , 124.5)
*       31 = U249/U213/GND (627 , 125)
*       31 = U251/U210/GND (792.5 , 125.5)
*       31 = U251/U213/GND (911.5 , 125)
*       31 = U298/U234/GND (-1042.5 , 271)
*       31 = U299/U234/GND (-1042.5 , 193)
*       31 = U299/U232/GND (-915.9 , 194.6)
*       31 = U298/U232/GND (-915.9 , 272.6)
*       31 = U281/U237/GND (-690.5 , 194)
*       31 = U281/U234/GND (-765.5 , 193)
*       31 = U281/U238/GND (-603 , 194.5)
*       31 = U279/U229/GND (-432 , 220.5)
*       31 = U293/U237/GND (-406 , 273)
*       31 = U293/U238/GND (-318.5 , 273.5)
*       31 = U279/U210/GND (-345 , 221.5)
*       31 = U279/U213/GND (-226 , 221)
*       31 = U282/U237/GND (-109 , 195)
*       31 = U282/U238/GND (-21.5 , 195.5)
*       31 = U283/U237/GND (175.5 , 195)
*       31 = U283/U238/GND (263 , 195.5)
*       31 = U284/U234/GND (384.5 , 194)
*       31 = U284/U237/GND (459.5 , 195)
*       31 = U284/U238/GND (547 , 195.5)
*       31 = U285/U234/GND (669 , 194)
*       31 = U285/U237/GND (744 , 195)
*       31 = U285/U238/GND (831.5 , 195.5)
*       32 = U285/U234/VDD (718.5 , 228.5)
*       32 = U285/U237/Vdd (745.5 , 229.5)
*       32 = U285/U238/VDD (840.5 , 226)
*       33 = U291/U239/B (702.5 , 285)
*       33 = U291/Y (702 , 309)
*       33 = Y0 (702 , 309)
*       33 = U294/U228/INPUTB (687.5 , -62)
*       33 = U252/U228/INPUTB (687.5 , -17)
*       33 = U252/Y (689 , 63.5)
*       33 = U251/U228/INPUTB (687.5 , 79)
*       33 = U251/Y (689 , 159.5)
*       33 = U285/U234/INPUTB (700 , 200)
*       33 = U285/Y (702 , 229)
*       34 = U291/U239/OUT (689.5 , 273.5)
*       34 = U291/U240/vin (728 , 285.5)
*       35 = U285/U234/OUTPUT (725 , 215.5)
*       35 = U285/U237/vin (736 , 207)
*       36 = P0 (915.5 , 244)
*       36 = U291/U240/vout (713.5 , 287)
*       43 = U284/U237/vout (480 , 206)
*       43 = U284/U238/B (494.5 , 222.5)
*       44 = U284/U238/S (486.5 , 223)
*       44 = U284/Sum (486.5 , 192)
*       44 = U251/CC (759 , 161)
*       44 = U251/U211/A (833.5 , 103.5)
*       45 = U284/U237/Vdd (461 , 229.5)
*       45 = U284/U234/VDD (434 , 228.5)
*       45 = U284/U238/VDD (556 , 226)
*       46 = U290/U239/B (418 , 285)
*       46 = U290/Y (417.5 , 309)
*       46 = Y1 (417.5 , 309)
*       46 = U295/U228/INPUTB (403 , -62)
*       46 = U250/U228/INPUTB (403 , -17)
*       46 = U250/Y (404.5 , 63.5)
*       46 = U249/U228/INPUTB (403 , 79)
*       46 = U249/Y (404.5 , 159.5)
*       46 = U284/U234/INPUTB (415.5 , 200)
*       46 = U284/Y (417.5 , 229)
*       47 = U290/U239/OUT (405 , 273.5)
*       47 = U290/U240/vin (443.5 , 285.5)
*       48 = U284/U237/vin (451.5 , 207)
*       48 = U284/U234/OUTPUT (440.5 , 215.5)
*       55 = U283/U237/vout (196 , 206)
*       55 = U283/U238/B (210.5 , 222.5)
*       56 = U284/U238/A (588 , 224.5)
*       56 = U284/AA (588 , 228.5)
*       56 = U289/U240/vout (145 , 287)
*       57 = U283/U238/S (202.5 , 223)
*       57 = U283/Sum (202.5 , 192)
*       57 = U249/CC (474.5 , 161)
*       57 = U249/U211/A (549 , 103.5)
*       59 = U283/U237/Vdd (177 , 229.5)
*       59 = U283/U234/VDD (150 , 228.5)
*       59 = U283/U238/VDD (272 , 226)
*       60 = U297/U228/INPUTB (119 , -62)
*       60 = U248/U228/INPUTB (119 , -17)
*       60 = U248/Y (120.5 , 63.5)
*       60 = U247/U228/INPUTB (119 , 79)
*       60 = U247/Y (120.5 , 159.5)
*       60 = U283/U234/INPUTB (131.5 , 200)
*       60 = U283/Y (133.5 , 229)
*       60 = U289/U239/B (134 , 285)
*       60 = U289/Y (133.5 , 309)
*       60 = Y2 (133.5 , 309)
*       61 = U289/U239/OUT (121 , 273.5)
*       61 = U289/U240/vin (159.5 , 285.5)
*       62 = U283/U237/vin (167.5 , 207)
*       62 = U283/U234/OUTPUT (156.5 , 215.5)
*       68 = U288/U240/vin (-125 , 285.5)
*       68 = U288/U239/OUT (-163.5 , 273.5)
*       69 = U288/U239/B (-150.5 , 285)
*       69 = U288/Y (-151 , 309)
*       69 = Y3 (-151 , 309)
*       69 = U308/U228/INPUTB (-165.5 , -62)
*       69 = U246/U228/INPUTB (-165.5 , -17)
*       69 = U246/Y (-164 , 63.5)
*       69 = U245/U228/INPUTB (-165.5 , 79)
*       69 = U245/Y (-164 , 159.5)
*       69 = U282/U234/INPUTB (-153 , 200)
*       69 = U282/Y (-151 , 229)
*       70 = U282/U237/vout (-88.5 , 206)
*       70 = U282/U238/B (-74 , 222.5)
*       71 = U283/U238/A (304 , 224.5)
*       71 = U283/AA (304 , 228.5)
*       71 = U288/U240/vout (-139.5 , 287)
*       72 = U282/U238/S (-82 , 223)
*       72 = U282/Sum (-82 , 192)
*       72 = U247/CC (190.5 , 161)
*       72 = U247/U211/A (265 , 103.5)
*       74 = U282/U237/Vdd (-107.5 , 229.5)
*       74 = U282/U234/VDD (-134.5 , 228.5)
*       74 = U282/U238/VDD (-12.5 , 226)
*       75 = U279/U215/VDD (-257 , 204.5)
*       76 = U282/U237/vin (-117 , 207)
*       76 = U282/U234/OUTPUT (-128 , 215.5)
*       84 = U279/U210/C (-289.5 , 251)
*       84 = U279/U213/A (-253 , 249)
*       85 = U279/U210/A (-304 , 250.5)
*       85 = U279/AA (-304 , 256.5)
*       85 = U293/Carry (-263 , 270.5)
*       85 = U293/U238/C (-263 , 303)
*       88 = U279/U229/VDD (-446 , 255.5)
*       88 = U279/U210/VDD (-336 , 252)
*       88 = U279/U213/VDD (-217.5 , 253)
*       89 = U279/U211/VDD (-336 , 201)
*       91 = U279/U210/B (-397.5 , 248.5)
*       91 = U279/BB (-397.5 , 257)
*       91 = U279/U229/vout (-439 , 235)
*       92 = U293/Sum (-379 , 270)
*       92 = U282/U238/A (19.5 , 224.5)
*       92 = U282/AA (19.5 , 228.5)
*       92 = U293/U238/S (-379 , 301)
*       94 = U279/U228/VDD (-431.5 , 203.5)
*       95 = U309/U228/INPUTB (-450 , -62)
*       95 = U244/U228/INPUTB (-450 , -17)
*       95 = U244/Y (-448.5 , 63.5)
*       95 = U279/U228/INPUTB (-450 , 175)
*       95 = U243/U228/INPUTB (-450 , 79)
*       95 = U243/Y (-448.5 , 159.5)
*       95 = U279/Y (-448.5 , 255.5)
*       95 = U293/U234/INPUTB (-450 , 278)
*       95 = U293/Y (-448 , 307)
*       95 = Y4 (-448 , 309)
*       101 = U287/U240/vin (-706.5 , 284.5)
*       101 = U287/U239/OUT (-745 , 272.5)
*       102 = U287/U239/B (-732 , 284)
*       102 = U287/Y (-732.5 , 308)
*       102 = Y5 (-732.5 , 308)
*       102 = U310/U228/INPUTB (-734.5 , -62)
*       102 = U242/U228/INPUTB (-734.5 , -17)
*       102 = U242/Y (-733 , 63.5)
*       102 = U241/U228/INPUTB (-734.5 , 79)
*       102 = U241/Y (-733 , 159.5)
*       102 = U281/U234/INPUTB (-734.5 , 199)
*       102 = U281/Y (-732.5 , 228)
*       103 = U279/CC (-378.5 , 257)
*       103 = U279/U211/A (-304 , 199.5)
*       103 = U287/U240/vout (-721 , 286)
*       104 = U281/U237/vout (-670 , 205)
*       104 = U281/U238/B (-655.5 , 221.5)
*       106 = U299/U234/VDD (-993 , 227.5)
*       106 = U299/U232/VDD (-906.9 , 225.1)
*       106 = U281/U237/Vdd (-689 , 228.5)
*       106 = U281/U234/VDD (-716 , 227.5)
*       106 = U281/U238/VDD (-594 , 225)
*       107 = U281/U237/vin (-698.5 , 206)
*       107 = U281/U234/OUTPUT (-709.5 , 214.5)
*       115 = U299/U232/A (-874.9 , 223.6)
*       115 = U299/AA (-875 , 228.5)
*       115 = U298/Carry (-860 , 270.5)
*       115 = U298/U232/C (-860.4 , 302.1)
*       116 = U298/U234/OUTPUT (-986.5 , 292.5)
*       116 = U298/U232/B (-968.4 , 299.6)
*       117 = U299/U234/INPUTA (-1067 , 197)
*       117 = U299/X (-1072 , 211)
*       117 = X1 (-1073 , 208.5)
*       117 = U281/U234/INPUTA (-790 , 197)
*       117 = U281/X (-795 , 210.5)
*       117 = U279/U228/INPUTA (-505.5 , 173)
*       117 = U279/X (-510.5 , 212)
*       117 = U282/U234/INPUTA (-208.5 , 198)
*       117 = U282/X (-213.5 , 211.5)
*       117 = U283/U234/INPUTA (76 , 198)
*       117 = U283/X (71 , 211.5)
*       117 = U284/U234/INPUTA (360 , 198)
*       117 = U284/X (355 , 211.5)
*       117 = U285/U234/INPUTA (644.5 , 198)
*       117 = U285/X (639.5 , 211.5)
*       118 = U299/U234/OUTPUT (-986.5 , 214.5)
*       118 = U299/U232/B (-968.4 , 221.6)
*       119 = U298/Sum (-976.5 , 270)
*       119 = U281/U238/A (-562 , 223.5)
*       119 = U281/AA (-562 , 227.5)
*       119 = U298/U232/S (-976.4 , 300.1)
*       120 = U299/U232/S (-976.4 , 222.1)
*       120 = U299/Sum (-976.5 , 192)
*       120 = U241/U211/A (-588.5 , 103.5)
*       120 = U241/CC (-663 , 161)
*       122 = U251/U213/A (884.5 , 153)
*       122 = U251/U210/C (848 , 155)
*       129 = U251/U210/A (833.5 , 154.5)
*       129 = U251/AA (833.5 , 160.5)
*       129 = U285/U238/C (887 , 225)
*       129 = U285/Carry (887 , 192.5)
*       135 = U251/U229/VDD (691.5 , 159.5)
*       135 = U251/U210/VDD (801.5 , 156)
*       135 = U251/U213/VDD (920 , 157)
*       136 = U241/U228/VDD (-716 , 107.5)
*       136 = U241/U211/VDD (-620.5 , 105)
*       136 = U241/U215/VDD (-541.5 , 108.5)
*       136 = U243/U228/VDD (-431.5 , 107.5)
*       136 = U243/U211/VDD (-336 , 105)
*       136 = U243/U215/VDD (-257 , 108.5)
*       136 = U245/U228/VDD (-147 , 107.5)
*       136 = U245/U211/VDD (-51.5 , 105)
*       136 = U245/U215/VDD (27.5 , 108.5)
*       136 = U247/U228/VDD (137.5 , 107.5)
*       136 = U247/U215/VDD (312 , 108.5)
*       136 = U247/U211/VDD (233 , 105)
*       136 = U249/U228/VDD (421.5 , 107.5)
*       136 = U249/U211/VDD (517 , 105)
*       136 = U249/U215/VDD (596 , 108.5)
*       136 = U251/U228/VDD (706 , 107.5)
*       136 = U251/U211/VDD (801.5 , 105)
*       136 = U251/U215/VDD (880.5 , 108.5)
*       137 = U251/U229/vout (698.5 , 139)
*       137 = U251/U210/B (740 , 152.5)
*       137 = U251/BB (740 , 161)
*       139 = U249/U213/A (600 , 153)
*       139 = U249/U210/C (563.5 , 155)
*       151 = U249/U210/A (549 , 154.5)
*       151 = U249/AA (549 , 160.5)
*       151 = U284/U238/C (602.5 , 225)
*       151 = U284/Carry (602.5 , 192.5)
*       152 = U249/U229/vin (428.5 , 137.5)
*       152 = U249/U228/OUTPUT (428 , 94.5)
*       153 = U249/U229/vout (414 , 139)
*       153 = U249/U210/B (455.5 , 152.5)
*       153 = U249/BB (455.5 , 161)
*       156 = U249/U229/VDD (407 , 159.5)
*       156 = U249/U210/VDD (517 , 156)
*       156 = U249/U213/VDD (635.5 , 157)
*       157 = U247/U215/vin (333.5 , 86.5)
*       157 = U247/U213/O/P (345 , 145)
*       158 = U247/U213/A (316 , 153)
*       158 = U247/U210/C (279.5 , 155)
*       167 = U247/U210/B (171.5 , 152.5)
*       167 = U247/BB (171.5 , 161)
*       167 = U247/U229/vout (130 , 139)
*       168 = U247/U210/A (265 , 154.5)
*       168 = U247/AA (265 , 160.5)
*       168 = U283/U238/C (318.5 , 225)
*       168 = U283/Carry (318.5 , 192.5)
*       172 = U247/U229/vin (144.5 , 137.5)
*       172 = U247/U228/OUTPUT (144 , 94.5)
*       173 = U247/U229/VDD (123 , 159.5)
*       173 = U247/U210/VDD (233 , 156)
*       173 = U247/U213/VDD (351.5 , 157)
*       177 = U245/U210/C (-5 , 155)
*       177 = U245/U213/A (31.5 , 153)
*       178 = U245/U210/A (-19.5 , 154.5)
*       178 = U245/AA (-19.5 , 160.5)
*       178 = U282/U238/C (34 , 225)
*       178 = U282/Carry (34 , 192.5)
*       181 = U245/U229/VDD (-161.5 , 159.5)
*       181 = U245/U210/VDD (-51.5 , 156)
*       181 = U245/U213/VDD (67 , 157)
*       188 = U245/U210/B (-113 , 152.5)
*       188 = U245/BB (-113 , 161)
*       188 = U245/U229/vout (-154.5 , 139)
*       190 = U245/U229/vin (-140 , 137.5)
*       190 = U245/U228/OUTPUT (-140.5 , 94.5)
*       191 = U279/U215/vin (-235.5 , 182.5)
*       191 = U279/U213/O/P (-224 , 241)
*       200 = U279/U211/C (-289.5 , 200)
*       200 = U279/U213/B (-237.5 , 247.5)
*       201 = U243/U210/C (-289.5 , 155)
*       201 = U243/U213/A (-253 , 153)
*       202 = U243/U210/A (-304 , 154.5)
*       202 = U243/AA (-304 , 160.5)
*       202 = U279/Carry (-250.5 , 169)
*       202 = U279/U215/vout (-250 , 184)
*       207 = U243/U229/VDD (-446 , 159.5)
*       207 = U243/U210/VDD (-336 , 156)
*       207 = U243/U213/VDD (-217.5 , 157)
*       210 = U279/Sum (-405.5 , 168.5)
*       210 = U279/U211/S (-405.5 , 198)
*       210 = U245/CC (-94 , 161)
*       210 = U245/U211/A (-19.5 , 103.5)
*       211 = U243/U210/B (-397.5 , 152.5)
*       211 = U243/BB (-397.5 , 161)
*       211 = U243/U229/vout (-439 , 139)
*       213 = U279/U211/B (-397.5 , 197.5)
*       213 = U279/U210/S (-405.5 , 249)
*       214 = U279/U229/vin (-424.5 , 233.5)
*       214 = U279/U228/OUTPUT (-425 , 190.5)
*       215 = U243/U229/vin (-424.5 , 137.5)
*       215 = U243/U228/OUTPUT (-425 , 94.5)
*       225 = U241/U210/C (-574 , 155)
*       225 = U241/U213/A (-537.5 , 153)
*       226 = U243/CC (-378.5 , 161)
*       226 = U243/U211/A (-304 , 103.5)
*       226 = U281/U238/S (-663.5 , 222)
*       226 = U281/Sum (-663.5 , 191)
*       227 = U241/U210/A (-588.5 , 154.5)
*       227 = U241/AA (-588.5 , 160.5)
*       227 = U281/U238/C (-547.5 , 224)
*       227 = U281/Carry (-547.5 , 191.5)
*       228 = U241/U229/VDD (-730.5 , 159.5)
*       228 = U241/U210/VDD (-620.5 , 156)
*       228 = U241/U213/VDD (-502 , 157)
*       231 = U241/U210/B (-682 , 152.5)
*       231 = U241/BB (-682 , 161)
*       231 = U241/U229/vout (-723.5 , 139)
*       233 = U241/U229/vin (-709 , 137.5)
*       233 = U241/U228/OUTPUT (-709.5 , 94.5)
*       239 = U300/U232/A (-874.9 , 128.6)
*       239 = U300/AA (-875 , 133.5)
*       239 = U299/U232/C (-860.4 , 224.1)
*       239 = U299/Carry (-860 , 192.5)
*       240 = U300/U234/VDD (-993 , 132.5)
*       240 = U300/U232/VDD (-906.9 , 130.1)
*       241 = U300/U234/INPUTA (-1067 , 102)
*       241 = U300/X (-1072 , 116)
*       241 = X2 (-1073 , 113.5)
*       241 = U241/U228/INPUTA (-790 , 77)
*       241 = U241/X (-795 , 116)
*       241 = U243/U228/INPUTA (-505.5 , 77)
*       241 = U243/X (-510.5 , 116)
*       241 = U245/U228/INPUTA (-221 , 77)
*       241 = U245/X (-226 , 116)
*       241 = U247/U228/INPUTA (63.5 , 77)
*       241 = U247/X (58.5 , 116)
*       241 = U249/U228/INPUTA (347.5 , 77)
*       241 = U249/X (342.5 , 116)
*       241 = U251/U228/INPUTA (632 , 77)
*       241 = U251/X (627 , 116)
*       242 = U300/U234/OUTPUT (-986.5 , 119.5)
*       242 = U300/U232/B (-968.4 , 126.6)
*       243 = U300/U232/S (-976.4 , 127.1)
*       243 = U300/Sum (-976.5 , 97)
*       243 = U242/U211/A (-588.5 , 7.5)
*       243 = U242/CC (-663 , 65)
*       245 = U251/U215/vin (902 , 86.5)
*       245 = U251/U213/O/P (913.5 , 145)
*       246 = U252/U213/A (884.5 , 57)
*       246 = U252/U210/C (848 , 59)
*       247 = U251/U213/B (900 , 151.5)
*       247 = U251/U211/C (848 , 104)
*       254 = U252/U210/A (833.5 , 58.5)
*       254 = U252/AA (833.5 , 64.5)
*       254 = U251/Carry (887 , 73)
*       254 = U251/U215/vout (887.5 , 88)
*       260 = U251/U211/B (740 , 101.5)
*       260 = U251/U210/S (732 , 153)
*       261 = U251/Sum (732 , 72.5)
*       261 = U251/U211/S (732 , 102)
*       261 = P2 (922 , 99.5)
*       262 = U251/U229/vin (713 , 137.5)
*       262 = U251/U228/OUTPUT (712.5 , 94.5)
*       263 = U242/U228/VDD (-716 , 11.5)
*       263 = U242/U211/VDD (-620.5 , 9)
*       263 = U242/U215/VDD (-541.5 , 12.5)
*       263 = U244/U228/VDD (-431.5 , 11.5)
*       263 = U244/U211/VDD (-336 , 9)
*       263 = U244/U215/VDD (-257 , 12.5)
*       263 = U246/U228/VDD (-147 , 11.5)
*       263 = U246/U211/VDD (-51.5 , 9)
*       263 = U246/U215/VDD (27.5 , 12.5)
*       263 = U248/U228/VDD (137.5 , 11.5)
*       263 = U248/U215/VDD (312 , 12.5)
*       263 = U248/U211/VDD (233 , 9)
*       263 = U250/U228/VDD (421.5 , 11.5)
*       263 = U250/U211/VDD (517 , 9)
*       263 = U250/U215/VDD (596 , 12.5)
*       263 = U252/U228/VDD (706 , 11.5)
*       263 = U252/U211/VDD (801.5 , 9)
*       263 = U252/U215/VDD (880.5 , 12.5)
*       264 = U252/U229/vout (698.5 , 43)
*       264 = U252/U210/B (740 , 56.5)
*       264 = U252/BB (740 , 65)
*       266 = U249/U215/vin (617.5 , 86.5)
*       266 = U249/U213/O/P (629 , 145)
*       267 = U250/U213/A (600 , 57)
*       267 = U250/U210/C (563.5 , 59)
*       268 = U249/U213/B (615.5 , 151.5)
*       268 = U249/U211/C (563.5 , 104)
*       280 = U249/U211/B (455.5 , 101.5)
*       280 = U249/U210/S (447.5 , 153)
*       281 = U249/Sum (447.5 , 72.5)
*       281 = U249/U211/S (447.5 , 102)
*       281 = U252/CC (759 , 65)
*       281 = U252/U211/A (833.5 , 7.5)
*       282 = U250/U210/A (549 , 58.5)
*       282 = U250/AA (549 , 64.5)
*       282 = U249/Carry (602.5 , 73)
*       282 = U249/U215/vout (603 , 88)
*       283 = U250/U229/vin (428.5 , 41.5)
*       283 = U250/U228/OUTPUT (428 , -1.5)
*       284 = U250/U229/vout (414 , 43)
*       284 = U250/U210/B (455.5 , 56.5)
*       284 = U250/BB (455.5 , 65)
*       287 = U242/U229/VDD (-730.5 , 63.5)
*       287 = U242/U210/VDD (-620.5 , 60)
*       287 = U242/U213/VDD (-502 , 61)
*       287 = U244/U229/VDD (-446 , 63.5)
*       287 = U244/U210/VDD (-336 , 60)
*       287 = U244/U213/VDD (-217.5 , 61)
*       287 = U246/U229/VDD (-161.5 , 63.5)
*       287 = U246/U210/VDD (-51.5 , 60)
*       287 = U248/U229/VDD (123 , 63.5)